Circuit: * C:\Users\Nbluh\Documents\GitHub_AllRepositories\FunTimes\PulseSim\Simulations\Draft1.asc

Direct Newton iteration for .op point succeeded.

Date: Sun Sep 09 13:24:57 2018
Total elapsed time: 0.046 seconds.

tnom = 27
temp = 27
method = trap
totiter = 3
traniter = 0
tranpoints = 0
accept = 0
rejected = 0
matrix size = 8
fillins = 4
solver = Normal
Matrix Compiler1: 620 bytes object code size
Matrix Compiler2: 676 bytes object code size
